@<TRIPOS>MOLECULE
*****
 58 62 0 0 0
SMALL
GASTEIGER

@<TRIPOS>ATOM
      1 FE          0.0000    0.0179   -0.0000 Fe      1  UNL1        0.0000
      2 N           1.9057    0.3528   -0.0000 N.pl3   1  UNL1        0.0000
      3 N           0.0000    1.9030   -0.0000 N.pl3   1  UNL1        0.0000
      4 N          -1.9057    0.3528    0.0000 N.pl3   1  UNL1        0.0000
      5 N           0.0000   -1.7874    0.0000 N.3     1  UNL1        0.0000
      6 N          -0.0000   -2.9113    0.0000 N.3     1  UNL1        0.0000
      7 C           2.2883    1.6368   -0.0001 C.2     1  UNL1        0.0000
      8 C           1.1971    2.5578   -0.0001 C.2     1  UNL1        0.0000
      9 C          -1.1971    2.5578    0.0000 C.2     1  UNL1        0.0000
     10 C          -2.2883    1.6368    0.0001 C.2     1  UNL1        0.0000
     11 C           2.8863   -0.6724    0.0002 C.ar    1  UNL1        0.0000
     12 C           3.3258   -1.1972   -1.2202 C.ar    1  UNL1        0.0000
     13 C           4.2443   -2.2407   -1.1977 C.ar    1  UNL1        0.0000
     14 H           4.5896   -2.6551   -2.1377 H       1  UNL1        0.0000
     15 C           4.7077   -2.7571    0.0007 C.ar    1  UNL1        0.0000
     16 H           5.4206   -3.5714    0.0009 H       1  UNL1        0.0000
     17 C           4.2442   -2.2403    1.1989 C.ar    1  UNL1        0.0000
     18 C           3.3257   -1.1968    1.2209 C.ar    1  UNL1        0.0000
     19 C          -2.8863   -0.6724   -0.0002 C.ar    1  UNL1        0.0000
     20 C          -3.3258   -1.1967   -1.2208 C.ar    1  UNL1        0.0000
     21 C          -4.2442   -2.2402   -1.1988 C.ar    1  UNL1        0.0000
     22 C          -4.7077   -2.7571   -0.0006 C.ar    1  UNL1        0.0000
     23 H          -5.4206   -3.5714   -0.0008 H       1  UNL1        0.0000
     24 C          -4.2442   -2.2408    1.1978 C.ar    1  UNL1        0.0000
     25 H          -4.5895   -2.6551    2.1377 H       1  UNL1        0.0000
     26 C          -3.3257   -1.1973    1.2202 C.ar    1  UNL1        0.0000
     27 H          -4.5896   -2.6542   -2.1390 H       1  UNL1        0.0000
     28 H           4.5895   -2.6542    2.1390 H       1  UNL1        0.0000
     29 C           2.7820   -0.6628   -2.5048 C.3     1  UNL1        0.0000
     30 H           3.2039   -1.1848   -3.3609 H       1  UNL1        0.0000
     31 H           1.6944   -0.7709   -2.5446 H       1  UNL1        0.0000
     32 H           2.9831    0.4030   -2.6282 H       1  UNL1        0.0000
     33 C           2.7817   -0.6620    2.5053 C.3     1  UNL1        0.0000
     34 H           2.9825    0.4039    2.6284 H       1  UNL1        0.0000
     35 H           1.6941   -0.7703    2.5450 H       1  UNL1        0.0000
     36 H           3.2036   -1.1837    3.3615 H       1  UNL1        0.0000
     37 C          -2.7818   -0.6619   -2.5053 C.3     1  UNL1        0.0000
     38 H          -1.6943   -0.7702   -2.5450 H       1  UNL1        0.0000
     39 H          -3.2039   -1.1835   -3.3615 H       1  UNL1        0.0000
     40 H          -2.9827    0.4040   -2.6283 H       1  UNL1        0.0000
     41 C          -2.7818   -0.6629    2.5049 C.3     1  UNL1        0.0000
     42 H          -3.2037   -1.1850    3.3609 H       1  UNL1        0.0000
     43 H          -1.6943   -0.7710    2.5445 H       1  UNL1        0.0000
     44 H          -2.9829    0.4029    2.6283 H       1  UNL1        0.0000
     45 C           3.7168    2.0462   -0.0001 C.3     1  UNL1        0.0000
     46 H           3.8205    3.1279   -0.0030 H       1  UNL1        0.0000
     47 H           4.2458    1.6603    0.8744 H       1  UNL1        0.0000
     48 H           4.2472    1.6553   -0.8714 H       1  UNL1        0.0000
     49 C          -3.7168    2.0462   -0.0000 C.3     1  UNL1        0.0000
     50 H          -4.2472    1.6553    0.8713 H       1  UNL1        0.0000
     51 H          -3.8205    3.1279    0.0029 H       1  UNL1        0.0000
     52 H          -4.2458    1.6602   -0.8744 H       1  UNL1        0.0000
     53 C           1.2096    3.9496   -0.0001 C.3     1  UNL1        0.0000
     54 C          -1.2096    3.9496    0.0000 C.2     1  UNL1        0.0000
     55 H           2.1473    4.4878   -0.0001 H       1  UNL1        0.0000
     56 H          -2.1473    4.4878    0.0001 H       1  UNL1        0.0000
     57 C           0.0000    4.6361   -0.0000 C.2     1  UNL1        0.0000
     58 H           0.0000    5.7179   -0.0001 H       1  UNL1        0.0000
@<TRIPOS>BOND
     1    39    37    1
     2    30    29    1
     3    40    37    1
     4    32    29    1
     5    38    37    1
     6    31    29    1
     7    37    20    1
     8    29    12    1
     9    27    21    1
    10    14    13    1
    11    20    21   ar
    12    20    19   ar
    13    12    13   ar
    14    12    11   ar
    15    21    22   ar
    16    13    15   ar
    17    52    49    1
    18    48    45    1
    19    46    45    1
    20    23    22    1
    21    22    24   ar
    22    19     4    1
    23    19    26   ar
    24    55    53    1
    25     7     8    2
    26     7    45    1
    27     7     2    1
    28    53     8    1
    29    53    57    1
    30     8     3    1
    31    45    47    1
    32    58    57    1
    33    57    54    2
    34     3     1    1
    35     3     9    1
    36    49    10    1
    37    49    51    1
    38    49    50    1
    39     2     1    1
    40     2    11    1
    41     1     5    1
    42     1     4    1
    43     5     6    1
    44     4    10    1
    45    54     9    1
    46    54    56    1
    47     9    10    2
    48    11    18   ar
    49    15    16    1
    50    15    17   ar
    51    24    26   ar
    52    24    25    1
    53    17    18   ar
    54    17    28    1
    55    26    41    1
    56    18    33    1
    57    41    43    1
    58    41    44    1
    59    41    42    1
    60    33    35    1
    61    33    34    1
    62    33    36    1
